Result_files/cjnrci_bus_voltage_730_bus.csv
Bus_Number,Real,Imaginary,Magnitude,Angle
1,1,0,1,0
2,0.998590562691924,1.83085020348439e-05,0.998590562859762,0.00105048048206853
3,0.991944755159865,0.000108745637757344,0.991944761120688,0.00628126317174707
4,0.988476388314795,0.000157408840980912,0.988476400847994,0.00912400364503668
5,0.984968430649035,0.000205117832038103,0.984968452006737,0.0119317386660025
6,0.976579619975687,-0.00173798680514106,0.976581166493595,-0.101967316967942
7,0.974687298242629,-0.00365080840196617,0.974694135489438,-0.214607223676659
8,0.972176466794328,-0.00321386074214862,0.972181779035985,-0.189410042274111
9,0.968847366855352,-0.00362984814297074,0.968854166559699,-0.214661269557976
10,0.965801730677085,-0.0039889467703354,0.965809968200365,-0.236641235799239
11,0.965365794635285,-0.00390931558322447,0.965373710124812,-0.23202195537724
12,0.964606828582378,-0.0037714141434245,0.964614201280696,-0.224013562578383
13,0.96146161782109,-0.00429910209988793,0.961471229326189,-0.256191989217868
14,0.960273189121071,-0.00483309379237973,0.960285351622297,-0.288369540288934
15,0.959443786382916,-0.00502356079617862,0.959456937747525,-0.299992772505371
16,0.958683370812807,-0.00512065567251053,0.958697046301658,-0.306033438363049
17,0.957559931242908,-0.00562539871524404,0.957576454928079,-0.336592923440917
18,0.957267792870881,-0.00567539250565747,0.957284616688256,-0.339687838848035
19,0.998320761039566,-5.66305700594755e-05,0.998320762645774,-0.00325015043157957
20,0.996494786114,-0.000509006836111261,0.996494916113648,-0.0292665263506162
21,0.996129286039178,-0.000652392706337546,0.996129499674197,-0.037524590269311
22,0.995798693454371,-0.000805988812163959,0.99579901963368,-0.0463745810182544
23,0.990174912981797,-9.78539472632369e-05,0.990174917817001,-0.00566225027025118
24,0.986850806196193,-0.000721142035339721,0.986851069683725,-0.0418689303797339
25,0.985195777083391,-0.00101874932867013,0.985196303806069,-0.05924712373702
26,0.975771885327401,-0.00172924752209431,0.97577341759877,-0.101538569122768
27,0.974720984251004,-0.00171862258588409,0.97472249938269,-0.10102349317953
28,0.970544600426376,-0.0027494427398677,0.970548494848234,-0.162312008670732
29,0.967645786970724,-0.00345061574271475,0.967651939382749,-0.204315342886587
30,0.966270547235066,-0.00344108006816091,0.966276674398171,-0.204040713003267
31,0.964111053314672,-0.00411109309492941,0.964119818388753,-0.244315066287231
32,0.963662019523706,-0.00429821425988244,0.963671605121958,-0.255554227988595
33,0.963525138784398,-0.00437694160612045,0.96353508015397,-0.26027193909011
34,0.998579854358544,8.60122725787982e-06,0.998579854395587,0.000493514883508016
35,0.991337776639223,0.00146323692491541,0.991338856523992,0.084569801854839
36,0.985296607840394,0.00268149017483277,0.985300256678818,0.155930396279988
37,0.980444419974227,0.00364473972321512,0.980451194494784,0.212992432168544
38,0.976767058495876,0.00435420690581914,0.976776763483072,0.255409950776461
39,0.974314265388645,0.00482709669998994,0.974326222885521,0.283861188520495
40,0.973093061958512,0.00506319016663461,0.973106234244985,0.298118259013044
41,0.990422167393409,0.00174239078558445,0.990423700034438,0.100796951615948
42,0.98438492995469,0.00295958585832042,0.984389378991033,0.172261137587242
43,0.979532371315509,0.00392250097138877,0.979540225038694,0.229437592962998
44,0.975832291785559,0.00463551612887699,0.975843301817068,0.272171268099174
45,0.97337328233976,0.00510926039904336,0.973386691564408,0.300744199695297
46,0.97217358625822,0.00534176464760912,0.972188261741376,0.314817738025
47,0.990426126061853,0.00174172501236685,0.990427657525732,0.100758034126453
48,0.984402502941999,0.00298805857000333,0.98440703791292,0.173915261985897
49,0.979572471230975,0.00394749970516004,0.979580425053238,0.230890368063956
50,0.975837857869734,0.00463459713891919,0.975848863473454,0.272115758914874
51,0.973380413146664,0.00510808672199167,0.973393816113257,0.300672912665308
52,0.972153718611265,0.00534502968383977,0.972168412340182,0.315016597220383
53,0.991935631560802,0.000101058455643241,0.991935636708723,0.00583729708683172
54,0.986005190637969,0.00151759655005467,0.986006358531377,0.0881859542790979
55,0.981209214462367,0.00266151365992776,0.981212824111475,0.155413466965681
56,0.977604239205512,0.00348959624142868,0.977610467310224,0.204518638161372
57,0.975171936111256,0.00404331174295726,0.975180318376467,0.237561564287123
58,0.973923097020011,0.00432213576099699,0.973932687492614,0.254269061529566
59,0.985160460450078,0.00181686917318577,0.985162135817147,0.105666865155035
60,0.980320505902751,0.00299941178362914,0.980325094427595,0.175302973807412
61,0.976703036317817,0.00379774499408017,0.976710419735288,0.222783850497917
62,0.974257253356091,0.00435356730848678,0.974266980485977,0.256030295335674
63,0.97297851914282,0.00463721743816391,0.972989569573551,0.273069724534146
64,0.985131586802336,0.00182169233300643,0.98513327112561,0.105950478779697
65,0.98029865757655,0.003003058442314,0.980303257368042,0.17552001607774
66,0.976728056613885,0.00379359083168397,0.976735423698831,0.222534460262463
67,0.974292559015766,0.00434772650270948,0.974302259711652,0.255677540875993
68,0.97297272455661,0.00463820601953845,0.972983779765209,0.273129564398343
69,0.988469141265512,0.000151417369659856,0.988469152862849,0.00877677996858525
70,0.983805591911756,0.00131139905877925,0.983806465949646,0.0763744254357314
71,0.980287785697931,0.0021773869413942,0.98029020386947,0.127263522779313
72,0.977964380486914,0.00276647774853651,0.977968293402341,0.162078578188388
73,0.976814703769478,0.00306019143502345,0.976819497282825,0.179497175296065
74,0.982954367464186,0.0016437924135789,0.982955741918433,0.0958155159741951
75,0.979405984524002,0.0024832026898766,0.979409132496236,0.145268388376662
76,0.977046332940586,0.00307814696042213,0.977051181720465,0.180507556410593
77,0.975932070032198,0.00336579288075106,0.975937873985351,0.197600804530172
78,0.982924361131984,0.00161735178265871,0.982925691765918,0.0942771907650161
79,0.979358862313696,0.0024910915306103,0.979362030471567,0.145736898664427
80,0.97710673661752,0.00309974396221913,0.977111653372311,0.181762794341688
81,0.975958729755356,0.0033931253638232,0.975964628193779,0.199200000436625
82,0.984961177223703,0.000199006362762149,0.984961197327811,0.0115763187331967
83,0.980246361302064,0.00132517317031214,0.980247257037666,0.0774568379199143
84,0.976699526126411,0.00217513719301576,0.976701948169125,0.127599094352366
85,0.974312198748942,0.00274977387999396,0.974316079045907,0.161703835624134
86,0.973095160770128,0.00304858771993072,0.973099936184011,0.179500058587537
87,0.979360897176747,0.0016323603768133,0.979362257552966,0.0954982722879323
88,0.975813044738934,0.00248224760500013,0.975816201871972,0.14574718536262
89,0.973429753277273,0.00305610433105265,0.973434550619164,0.179880781362812
90,0.97220759485589,0.00335561552128593,0.972213385862898,0.197758014416898
91,0.979362016121003,0.0016322352560739,0.97936337628713,0.0954908432399306
92,0.975829216085267,0.0024795719995215,0.975832366363653,0.145587672994905
93,0.973421189736008,0.00305746914082379,0.973425991405927,0.179962696032249
94,0.972140329612215,0.00339870519469028,0.972146270710096,0.200311276216177
95,0.976572148022206,-0.00174424542032253,0.976573705710323,-0.102335290793342
96,0.971730487524647,-0.00057292201408839,0.971730656419011,-0.0337809814709094
97,0.968114185040031,0.000334491085818449,0.968114242824683,0.0197961428886037
98,0.965689715881437,0.000919904008278899,0.965690154025894,0.0545792301837336
99,0.964479325228027,0.00118198916685404,0.964480049503722,0.0702171161321092
100,0.970781213138203,-0.000283493905456609,0.970781254532078,-0.016731889347245
101,0.967192514196204,0.000682802889711721,0.967192755213231,0.0404487387426769
102,0.964808651924071,0.00126125142124805,0.964809476312651,0.0749001805007747
103,0.96356801251037,0.00149629331434533,0.963569174282193,0.0889726742709596
104,0.970818906207452,-0.000258082729366075,0.970818940511839,-0.0152315233201635
105,0.967236276375684,0.000675328327198886,0.967236512134157,0.0400041412751497
106,0.964736868654637,0.0012732974758058,0.964737708928192,0.0756211682553681
107,0.963552733938535,0.00146674296811606,0.963553850293465,0.0872169356522915
108,0.974676247430261,-0.00366046052716102,0.974683120955733,-0.215177043471765
109,0.967352851493125,-0.00204828789596474,0.967355020028937,-0.121318788791447
110,0.961240261855064,-0.000701709375942055,0.961240517980406,-0.0418261491323969
111,0.956359816262422,0.000398757255810497,0.956359899393969,0.0238896554368628
112,0.952734612770209,0.00125216914897962,0.95273543562627,0.0753032011246924
113,0.950339053092638,0.00181953185212593,0.950340794941042,0.109699131158521
114,0.949129842011601,0.00208324638730044,0.949132128269019,0.125758382802372
115,0.966438558026971,-0.00173078662790182,0.966440107851285,-0.102610416538189
116,0.960294989872022,-0.000411464663519684,0.960295078023665,-0.0245499429283132
117,0.955414741679647,0.000688485114897658,0.955414989745576,0.0412881262892675
118,0.951819770375881,0.00160144639841199,0.951821117599815,0.0964006380399489
119,0.949454196284464,0.00216371936584134,0.949456661740636,0.130571620607069
120,0.948181173149364,0.00237279457730211,0.948184142067885,0.143380648119286
121,0.966429152414583,-0.00176121654157337,0.966430757230168,-0.104415479062218
122,0.960311316121529,-0.000414247163204969,0.960311405467921,-0.024715539904921
123,0.955394956046586,0.000691866091099133,0.955395206560063,0.0414917410101625
124,0.951785457944467,0.00154221676932826,0.95178670740199,0.0928386054938443
125,0.949429934591728,0.0021351259021683,0.949432335378078,0.128849420309577
126,0.948242697094885,0.00239509904530953,0.948245721895553,0.14471904228914
127,0.97467628244404,-0.00366078383382767,0.974683157183509,-0.215196040868585
128,0.967230608317782,-0.00216117365988209,0.967233022770818,-0.12802109690695
129,0.960991490048845,-0.000927073434856157,0.960991937224997,-0.0552735161424331
130,0.955983007029093,6.07015907975022e-05,0.955983008956262,0.00363808240541985
131,0.952227717724859,0.000801043509692106,0.952228054656131,0.0481989766007538
132,0.949715082688992,0.00129496258442499,0.949715965547097,0.078124319688636
133,0.948471448482558,0.00154105231969754,0.948472700413067,0.0930926454051569
134,0.966317370077107,-0.00184365625232947,0.96631912884984,-0.109315631932321
135,0.960057875025366,-0.000638583690448327,0.960058087402711,-0.0381103534323497
136,0.955026926109813,0.000352698644285377,0.955026991236945,0.0211597623965819
137,0.951287387418218,0.00109014286688765,0.951288012051266,0.0656589783731149
138,0.948752514666042,0.00158756591370603,0.94875384291747,0.0958740453928066
139,0.947525467311682,0.00183080820005384,0.947527236053343,0.110706736693392
140,0.966312440753022,-0.00187492368621,0.96631425969655,-0.111170129649902
141,0.960053264071011,-0.000637764473199946,0.960053475904819,-0.0380616457753913
142,0.955032393934492,0.000351803679766526,0.955032458731156,0.0211059491636955
143,0.951277559365273,0.00109180192478236,0.951278185907462,0.0657595822281288
144,0.948746474257219,0.00158858229029272,0.94874780421838,0.0959360356553225
145,0.947525366471993,0.00183079247755245,0.947527135183463,0.110705797757047
146,0.972165463322835,-0.00322358011687298,0.972170807804098,-0.189985003246003
147,0.964828795974258,-0.00165128865042737,0.964830209049936,-0.0980606906054169
148,0.95870996764756,-0.00032473430660976,0.958710022644572,-0.0194072296608547
149,0.953778881311188,0.000738244370581928,0.95377916701927,0.0443480968863712
150,0.950065518067582,0.00153605128277043,0.950066759798787,0.0926348522914049
151,0.947586201013069,0.0020679485373149,0.947588457486441,0.125038265874626
152,0.946334715341473,0.00231392065526518,0.946337544266962,0.140095910370466
153,0.963905372484639,-0.00136432458593451,0.96390633802581,-0.0810971602499952
154,0.957834577306136,-1.40633977547394e-05,0.957834577409379,-0.000841244778580264
155,0.952867593651002,0.00105478039150238,0.952868177447397,0.0634237542178454
156,0.949137365158452,0.00185524217546204,0.949139178341858,0.111993706236772
157,0.946689653552231,0.00241437624750389,0.946692732281973,0.146123144690337
158,0.945380932492803,0.0026044591544355,0.945384520038513,0.157845514771775
159,0.963900155145531,-0.00136339796350886,0.963901119380814,-0.0810425193862105
160,0.957782859426025,-3.76271918910873e-05,0.95778286016513,-0.00225090610879279
161,0.952841368985906,0.00102672286142681,0.952841922152237,0.0617383604830663
162,0.949119641553827,0.00182561121237095,0.949121397314149,0.11020706339114
163,0.946621545914561,0.00236036542979291,0.946624488651459,0.142864587800845
164,0.945384224568955,0.00260394160158422,0.945387810676501,0.157813598641716
165,0.972165457881075,-0.00322358667216657,0.972170802384104,-0.189985390649576
166,0.964824443354747,-0.0016510485677999,0.964825856025932,-0.0980468758010229
167,0.958673530378311,-0.000342694484448799,0.958673591629354,-0.0204813694785572
168,0.953771507500586,0.000718418675715503,0.953771778071324,0.0431574543099758
169,0.950061102351947,0.00149549902447232,0.950062279389899,0.0901896850475783
170,0.947584864380207,0.00200664893809458,0.947586989063492,0.121331975190523
171,0.946374410823918,0.00227075368537119,0.946377135070696,0.137476617412073
172,0.963938052328993,-0.00133827314789858,0.963938981317195,-0.0795459353017465
173,0.957720990755224,-5.12073363414502e-05,0.957720992124199,-0.00306348537621846
174,0.952850624096023,0.00103656431550389,0.952851187912237,0.0623295357552149
175,0.949140903340391,0.00181339585434781,0.949142635644579,0.109467205822298
176,0.946627019685275,0.00229802362948616,0.946629809012387,0.139090469432
177,0.945433662590376,0.00255912037382966,0.945437126125339,0.155089081745176
178,0.963904768434979,-0.00136472684302063,0.963905734546199,-0.0811211217185241
179,0.957726028153923,-5.20639060775813e-05,0.957726029569072,-0.00311471338627228
180,0.952887120677016,0.0010304320499382,0.952887677820604,0.0619584242899275
181,0.949107087367904,0.0017864044812399,0.949108768547081,0.107841694338924
182,0.946616402625744,0.00229976916444849,0.94661919622323,0.139197680676383
183,0.945477477887472,0.00258459095058459,0.945481010545868,0.156625395982755
184,0.968839956695567,-0.00363604595022442,0.968846779692238,-0.215029435488526
185,0.964042056997125,-0.00247166196930062,0.964045225480702,-0.14689762536909
186,0.960482429886923,-0.00157597987668613,0.960483722836603,-0.0940120419559068
187,0.958106930348109,-0.000985689092017515,0.958107437380622,-0.0589452003435686
188,0.956938241770111,-0.00068166099957719,0.956938484555716,-0.040813805973721
189,0.963107271246411,-0.00218177407683314,0.963109742483083,-0.129794713787379
190,0.959582990745385,-0.00126027665889835,0.959583818342679,-0.0752498666112362
191,0.95714919790572,-0.000692598547520535,0.957149448489791,-0.0414595413448378
192,0.956049160673283,-0.00036807571980086,0.956049231527239,-0.0220586818244934
193,0.963096693695159,-0.0021477925188378,0.963099088577728,-0.127774545797362
194,0.959591619172381,-0.0012295472601276,0.959592406895937,-0.0734143866579941
195,0.95723615436297,-0.000642746861054579,0.95723637015271,-0.0384718825457009
196,0.956060830371114,-0.000337677449392187,0.956060890004379,-0.0202366745585481
197,0.965794095754528,-0.00399533402026714,0.965802359744601,-0.237022023929549
198,0.96085007041658,-0.00279607336162965,0.960854138694209,-0.166730227284791
199,0.957078960468527,-0.00192329005605908,0.957080892932336,-0.115138101671625
200,0.954550395735752,-0.00132013517120121,0.954551308603236,-0.0792395307896234
201,0.953277324410351,-0.00100773628311067,0.953277857063392,-0.0605689581591559
202,0.959963597125882,-0.00244922572631666,0.95996672156566,-0.146182618924781
203,0.956156372709695,-0.00160275083110251,0.956157716009021,-0.09604158362154
204,0.953591113368493,-0.000993468988805113,0.953591630875604,-0.0596917890107443
205,0.952320133695051,-0.000681541406675618,0.952320377572405,-0.0410045300078776
206,0.959967050551984,-0.00244982209832694,0.959970176502265,-0.146217687365964
207,0.956114911671939,-0.00162795514164957,0.956116297612055,-0.0975561280098342
208,0.953606288554293,-0.000996065359452474,0.953606808761605,-0.0598468373642486
209,0.952307265315881,-0.000646798380792194,0.952307484965627,-0.0389147631931422
210,0.965360241993213,-0.00391380795557742,0.965368175730849,-0.232289915522604
211,0.961827452519826,-0.00299520377629716,0.961832116154602,-0.178422834554519
212,0.95948370341276,-0.00236335298677881,0.959486614055666,-0.141127855858237
213,0.958316792998008,-0.00205804377794861,0.958319002882745,-0.123045992841707
214,0.9609339340786,-0.00267940946518447,0.960937669622155,-0.159759636577245
215,0.958578829719888,-0.00201348347861558,0.958580944366656,-0.120348929272793
216,0.95743138275293,-0.00171162096072106,0.957432912702766,-0.102428805309801
217,0.960920134629306,-0.00267702358570269,0.960923863576757,-0.159619671584936
218,0.958613002030137,-0.00201940122732919,0.958615129049479,-0.12069833819558
219,0.957438675199162,-0.00174519064284028,0.95744026573855,-0.104436921267032
220,0.964599438433155,-0.00377763634403832,0.964606835535549,-0.224384862662387
221,0.959797586732001,-0.00262888537557616,0.959801186983477,-0.156932734840695
222,0.956197291954454,-0.00172686614097286,0.956198851289678,-0.103474497289089
223,0.953793428018684,-0.00113232262903222,0.953794100152737,-0.0680202602636073
224,0.952577087498703,-0.000844406947330222,0.952577461758677,-0.0507895289905219
225,0.958929743188129,-0.00234980522589089,0.958932622218814,-0.140399913132991
226,0.955297374085177,-0.00137778258292546,0.955298367641692,-0.0826350773012237
227,0.952878247483311,-0.000813263331144525,0.952878594535585,-0.0489008383980868
228,0.951601815941496,-0.000482612717192393,0.951601938322,-0.0290580251114272
229,0.958838806685005,-0.00233415034180036,0.958841647751568,-0.139477770637472
230,0.955288186221275,-0.00140862462616687,0.955289224767698,-0.0844856962189882
231,0.95291328186142,-0.000786787090320964,0.952913606672624,-0.0473071057618094
232,0.951709315439266,-0.000566089275335662,0.951709483797941,-0.03408028265883
233,0.961454008151153,-0.00430525860703541,0.961463647280328,-0.256560893316154
234,0.956612507680535,-0.00304631669544217,0.956617358140783,-0.18245684465552
235,0.952986722077812,-0.00209770952089744,0.952989030808774,-0.126118974473513
236,0.950558614380891,-0.00145790431102244,0.950559732399126,-0.0878764309675108
237,0.949361420375968,-0.0011495394873894,0.949362116338813,-0.0693768752429507
238,0.955672370684947,-0.00268907079221512,0.955676153930981,-0.161218431454837
239,0.952068658623958,-0.00177700128398457,0.952070316976423,-0.106940349952223
240,0.949658546429528,-0.00110793587520804,0.949659192725763,-0.066845100334289
241,0.948475358434108,-0.000802028496049931,0.948475697530737,-0.0484491626605043
242,0.955714130523891,-0.00272873762676618,0.955718026037007,-0.163589424468837
243,0.952094035962596,-0.00174883538160314,0.952095642118342,-0.105242518022002
244,0.949599916920193,-0.00109786278828993,0.949600551557095,-0.06624145085365
245,0.948437414776001,-0.00082822369222378,0.948437776399416,-0.0500335702236771
246,0.960261902962416,-0.00484257536103548,0.960274113374471,-0.288938650243677
247,0.952937161674287,-0.00308186546827613,0.952942145145555,-0.185297914535422
248,0.946815633352104,-0.00163153058042214,0.946817039058751,-0.0987306510239443
249,0.941896345827451,-0.000449697013453526,0.941896453178644,-0.027355174576189
250,0.938185795173522,0.000422073171822973,0.938185890115139,0.0257763546240693
251,0.93571567457591,0.00100283551993533,0.935716211960726,0.0614056410513494
252,0.934511411461358,0.0012911633711829,0.934512303425884,0.0791623985004238
253,0.952025198462977,-0.00276126426075227,0.952029202855032,-0.166180837315461
254,0.945899921821357,-0.00131066420246953,0.945900829866588,-0.0793905120064602
255,0.940985794279188,-0.000130030594552053,0.94098580326336,-0.00791744601595746
256,0.937271557053956,0.000742085810534339,0.937271850827548,0.0453639884574246
257,0.93472428359726,0.00133568632368154,0.934725237919874,0.0818734875664422
258,0.933583970124703,0.00157999105297785,0.93358530710671,0.0969668883274815
259,0.95203003010681,-0.00272956325352861,0.952033943061238,-0.16427215620225
260,0.945907114249351,-0.00134466937660108,0.94590807001699,-0.0814496762537774
261,0.940979175609301,-9.60672442500864e-05,0.94097918051319,-0.00584948930702401
262,0.937220074119027,0.00075079700070197,0.937220374846711,0.0458990277706837
263,0.934787849026091,0.00132497188945811,0.934788788035743,0.0812112036755523
264,0.933614628417179,0.00164117090018324,0.933616070896635,0.100718290311675
265,0.959436452970297,-0.00502968419325952,0.959449636516326,-0.300360733414682
266,0.954692446339553,-0.0038742567628247,0.954700307407128,-0.232511887554501
267,0.951128906172882,-0.00296653635433178,0.951133532420956,-0.178702866270934
268,0.948748153236488,-0.00236810248478817,0.9487511086576,-0.143011604920619
269,0.947583118543341,-0.00208102052281837,0.947585403641666,-0.12582906872913
270,0.953801273040924,-0.00358925420741933,0.953808026386994,-0.215609008685613
271,0.950217806075909,-0.00264585416172222,0.950221489721191,-0.159538038454788
272,0.94781452579395,-0.00204373317936525,0.947816729199964,-0.123544323243557
273,0.94669467895461,-0.00173183456904639,0.946696263017842,-0.104813836117642
274,0.953789900142876,-0.00358727680460935,0.953796646130312,-0.215492795297586
275,0.950252455879822,-0.00261924690360286,0.950256065679128,-0.157927940192981
276,0.947843422712602,-0.00201606681784068,0.94784556680134,-0.121868172435721
277,0.946708050011368,-0.00179953151708535,0.946709760312002,-0.108909432902733
278,0.958675685184643,-0.00512700365692207,0.958689394710687,-0.306415271704493
279,0.953732405510291,-0.00389497564231809,0.953740358879554,-0.23399060747676
280,0.949988951359192,-0.00297395630891051,0.949993606357783,-0.17936481059548
281,0.947450504860225,-0.00236405326471718,0.947453454217005,-0.142962606298829
282,0.946180603367788,-0.00206946875528045,0.946182866517018,-0.125316071812391
283,0.952826118407163,-0.00354212808088834,0.952832702309384,-0.212995897901129
284,0.949087974120602,-0.0026547852488146,0.949091687090908,-0.160267117176667
285,0.946493202455811,-0.00203541627651901,0.946495391015971,-0.123213333303401
286,0.945218823225023,-0.00174012206493954,0.945220424982289,-0.105479847706638
287,0.95282495842937,-0.00357447340158597,0.952831663131547,-0.214941136183358
288,0.9490681646694,-0.00261878805830728,0.949071777706954,-0.158097308452978
289,0.946488049287449,-0.00200174217607984,0.946490166042785,-0.121175547276841
290,0.945217228646215,-0.00173984793511818,0.945218829901557,-0.105463408910816
291,0.957552203642028,-0.00563153815298167,0.957568763547387,-0.336962984427979
292,0.952681911901149,-0.00431893249147578,0.952691701675571,-0.259745572408887
293,0.949017984867722,-0.00331865884931444,0.949023787425241,-0.200359080310505
294,0.9465754488832,-0.00265200211190306,0.9465791639074,-0.160524056359144
295,0.945372374659434,-0.00231998642996889,0.945375221330797,-0.140606143873304
296,0.951751648898223,-0.00399377546759834,0.951760028275495,-0.240425257792409
297,0.948108882782865,-0.00296492277613817,0.948113518719589,-0.179174576864069
298,0.9456541857987,-0.00229633627878635,0.945656973896406,-0.139131323569746
299,0.944462476566461,-0.00196640201591061,0.944464523621158,-0.119291529664338
300,0.951788496675871,-0.00396764704855719,0.951796766451545,-0.238843098533229
301,0.94808345374117,-0.00296051652399074,0.948088076032957,-0.178913100960101
302,0.945625181047116,-0.0022913313835687,0.945627957089838,-0.138832344399568
303,0.944466827832932,-0.0019670857460664,0.944468876301984,-0.11933245816866
304,0.957258286205067,-0.00568330755119778,0.957275157148133,-0.340164943064659
305,0.951117857827123,-0.00417848084805439,0.95112703629949,-0.251711998864275
306,0.946201598439982,-0.00296677391805608,0.94620624952378,-0.179647833523389
307,0.942495178421218,-0.002067433560249,0.942497445953446,-0.125682369677333
308,0.940037922955748,-0.00148289114784004,0.940039092570683,-0.0903828789225387
309,0.938800263168037,-0.00121093345130798,0.938801044143113,-0.0739042587384577
310,0.950168372634283,-0.00384991146880888,0.950176172176928,-0.232150930194073
311,0.945287641005414,-0.0026119986397283,0.94529124970798,-0.158318072485669
312,0.9415267983457,-0.00170341444323026,0.941528339256908,-0.103659664327471
313,0.939094287269126,-0.00112326284871781,0.939094959043512,-0.0685321918104858
314,0.937845591567977,-0.000915478636941551,0.93784603839043,-0.0559292978955458
315,0.95021296923541,-0.00385761500520897,0.95022079965485,-0.232604533594489
316,0.945286487668267,-0.00264450163998221,0.945290186745389,-0.160288324845261
317,0.94157381191446,-0.00174438869076406,0.941575427767224,-0.106147807214148
318,0.939137375435709,-0.00116358481008595,0.939138096272259,-0.070989044151496
319,0.937876253977013,-0.000887672548761923,0.937876674055021,-0.0542287697669441
320,0.998311647952985,-6.42621855340199e-05,0.998311650021291,-0.00368817895278516
321,0.992407242192371,0.00136482647227828,0.992408180693391,0.0787970341246122
322,0.987698486638535,0.00251839227728347,0.987701697278948,0.146090064836166
323,0.984133332873619,0.00336056429034186,0.984139070591797,0.195649711069419
324,0.98175332302279,0.00390876165360802,0.981761104181641,0.228116734907888
325,0.980554932465734,0.00420334737352502,0.980563941674393,0.245608462308827
326,0.991473521349862,0.00167824081230964,0.991474941705599,0.0969829467432644
327,0.986832704120594,0.00285133889453701,0.986836823418875,0.165549063489407
328,0.983262811368721,0.00366274331671561,0.98326963337089,0.213430997671075
329,0.980883188263206,0.00421070415286447,0.980892226010001,0.245955989152664
330,0.979639636149755,0.00454430978987128,0.979650176066483,0.265779266808794
331,0.99152808061787,0.00166899682499719,0.991529485292373,0.0964434448685065
332,0.986837900437655,0.00285047064033894,0.98684201720593,0.165497781382666
333,0.983210214495872,0.00370295458027651,0.983217187482827,0.215785661028521
334,0.980828885246002,0.0041881533344813,0.980837826942491,0.244652309108145
335,0.979656116458697,0.00451000541421104,0.979666497673454,0.263768526509444
336,0.996485681195372,-0.000516614706647352,0.996485815111364,-0.029704229806755
337,0.990593516966753,0.000916326033209173,0.990593940779955,0.0530001443446137
338,0.98585073563129,0.00207588286879611,0.985852921197904,0.120646206428498
339,0.982287354627552,0.00296053401052123,0.982291816021503,0.172684285815509
340,0.979925978541808,0.00356919466010238,0.979932478577806,0.208688095267069
341,0.978779279226299,0.00388136303611623,0.978786974995975,0.227206030781646
342,0.989694949823099,0.00125578517916162,0.989695746531105,0.0727003327034706
343,0.984932613281726,0.00238700056870236,0.984935505745267,0.138857002680718
344,0.981366843272484,0.0032717377128313,0.981372297011823,0.191015285879913
345,0.978992993269062,0.00388217343842716,0.979000690572036,0.227203860481774
346,0.977908611850824,0.00421555816024974,0.977917698000506,0.246988513886968
347,0.989750706231624,0.00118378749746123,0.989751414163595,0.0685283624205172
348,0.984981110463776,0.00237881264704807,0.984983982976405,0.138373881989371
349,0.981385190170365,0.00326864965821911,0.98139063351772,0.190831428363635
350,0.979019864795279,0.00390938149547825,0.97902767015414,0.228789912980656
351,0.977918890964447,0.00421388725212443,0.97792796981726,0.246888021915996
352,0.996119984365033,-0.00066022992453703,0.996120203165736,-0.0379757290673324
353,0.990073793851186,0.000783957146982427,0.99007410422639,0.0453677561539525
354,0.985227450697094,0.00193138016747259,0.985229343775573,0.112319028870614
355,0.981568083669645,0.00278320185374094,0.981572029497304,0.162459736666949
356,0.979092405977134,0.00337985369144813,0.979098239633322,0.197785808060657
357,0.977856921442199,0.00365795626869876,0.977863763239276,0.214330413418272
358,0.989178457552243,0.00112309643456211,0.989179095124354,0.0650526278092823
359,0.98431503229329,0.00224171892836402,0.984317584980729,0.130487503668496
360,0.980705406848155,0.00305346106461863,0.980710160366293,0.178391865041866
361,0.978149300213158,0.00372646768409046,0.97815639857279,0.218279395378152
362,0.976927064439098,0.00397071647742743,0.976935133887065,0.232877203721405
363,0.989153101406089,0.0010960520317235,0.98915370865773,0.0634877753031247
364,0.984343642312452,0.00226842741822643,0.98434625611311,0.132038326381199
365,0.98063322088034,0.0030970249275309,0.98063811136298,0.180950291770614
366,0.978160291304725,0.00372470495715948,0.978167382870827,0.218173692401865
367,0.976912450597119,0.00397310834505649,0.976920529890528,0.233020967728108
368,0.99578949396112,-0.000813760757150458,0.995789826464357,-0.0468221916598087
369,0.989801163025562,0.000608239750731157,0.989801349909339,0.0352086535803223
370,0.984979092394016,0.00173538834651549,0.984980621142392,0.100946635271744
371,0.981346714217591,0.00258637929784281,0.981350122465746,0.151005014569407
372,0.978923365816673,0.00314031359279931,0.978928402750326,0.183799983028041
373,0.977715073323323,0.00341700493206922,0.977721044330302,0.200241531944398
374,0.988875963147015,0.000952617208323748,0.988876421990878,0.0551949189571629
375,0.98404031593906,0.00201896231963368,0.984042387096356,0.117553982008737
376,0.980445233991099,0.0029264563873523,0.980449601459886,0.171017305372669
377,0.978016395318521,0.00344955346926625,0.978022478745234,0.20208662794793
378,0.976823667967889,0.00372361113680826,0.976830765067388,0.218408067195226
379,0.98896218475909,0.000906796956512879,0.988962600488104,0.0525355010776249
380,0.98411433838554,0.00206943926462936,0.984116514237455,0.120483927961384
381,0.980417953660265,0.00289944800725928,0.98042224100544,0.169443703886019
382,0.977987593663711,0.00345440911367917,0.977993694408333,0.202377045585635
383,0.976774150730538,0.00373180420560129,0.976781279457173,0.218899722594974
384,0.990165896676421,-0.000105524205399441,0.990165902299396,-0.00610613999458479
385,0.984274991648675,0.00127204477537576,0.984275813622843,0.0740471484316158
386,0.979557999929979,0.00237377307079333,0.979560876120219,0.138845185540727
387,0.975979797587829,0.00320231488854261,0.975985051176617,0.187994126322868
388,0.973597680954605,0.00375429634260761,0.973604919410955,0.220937532531626
389,0.972435322677842,0.00400834265639274,0.9724435837633,0.23616975959127
390,0.983362447749559,0.00161467814121183,0.983363773396958,0.0940794107311158
391,0.978688018029179,0.00267750979935193,0.978691680608663,0.156750287672369
392,0.975059120613527,0.00351430421409468,0.975065453713613,0.206504327031073
393,0.972664756024671,0.00406808022421481,0.972673263171782,0.239632892076451
394,0.971559472066508,0.00431267475620723,0.971569043828437,0.254329710250215
395,0.98340845667755,0.00154403994287043,0.983409668817765,0.0899594658046033
396,0.978703022257577,0.00267496917498624,0.978706677833662,0.156599151048642
397,0.975087080551474,0.00350959042016938,0.975093396492517,0.206221428408346
398,0.972683845152106,0.00409672501976408,0.972692472354842,0.241315476462422
399,0.97154657828857,0.00428296293081513,0.971556018742973,0.252580900986918
400,0.986839990338785,-0.000730323653082235,0.986840260581464,-0.042402472306091
401,0.979781359090255,0.000928124534276506,0.979781798685757,0.0542749688766727
402,0.973858692504094,0.00229186901661965,0.973861389330829,0.134839048452135
403,0.96908595714737,0.00336030252155707,0.969091783049093,0.198672139785935
404,0.965513435033688,0.00417093200008185,0.965522444018937,0.247511122083463
405,0.963146198664793,0.00472380726389036,0.963157782690618,0.281008272360081
406,0.961969779120415,0.0049997625540819,0.961982771969736,0.297787643363266
407,0.978912686767927,0.00126461915797259,0.978913503623694,0.0740181439208352
408,0.972985085069534,0.00262900909840112,0.972988636858934,0.154813019619579
409,0.968190968918988,0.0036689387133617,0.968197920575939,0.21712007660349
410,0.964630606981488,0.00447737435198601,0.964640997888107,0.265938909238436
411,0.962273051172632,0.00502843903611566,0.962286189349212,0.2994012058924
412,0.961072964822084,0.00530824200813059,0.961087624072399,0.316455443205019
413,0.97893287289063,0.00122952645676258,0.978933645024631,0.0719626867988701
414,0.972993550473786,0.00259578497805363,0.972997013028938,0.152855248472169
415,0.968158165450924,0.00364246135034037,0.968165017367384,0.215560520164188
416,0.964565598663164,0.00445601233754691,0.964575891348307,0.264687942967329
417,0.962214190753282,0.00503816256916081,0.962227380596222,0.299998499849111
418,0.961083641048398,0.00530648733674224,0.961098290446248,0.316347324956002
419,0.986839913238727,-0.000730715534584572,0.986840183771522,-0.0424252281885596
420,0.979596770914845,0.000840437640721275,0.979597131438337,0.0491564686330918
421,0.973583765980024,0.00215058365212937,0.973586141227314,0.126562470175725
422,0.968718844152517,0.0031854515834742,0.968724081520625,0.188405825740234
423,0.965039051330945,0.00396319985768356,0.965047189284981,0.235299647540163
424,0.962589626885014,0.00448128316586967,0.962600058012383,0.266735429237981
425,0.961355342131745,0.00474085998287905,0.961367031678652,0.282548038662067
426,0.978655337323414,0.00112607415817819,0.978655985172837,0.0659264459592172
427,0.972724314401088,0.00245372406034761,0.972727409189661,0.144529886292864
428,0.967859630478792,0.00348833587192626,0.967865916745548,0.206503144949033
429,0.964093937839048,0.00424810483652432,0.964103297044827,0.25246181236238
430,0.961695438772226,0.00478974002092407,0.961707366387911,0.285360216955812
431,0.960437296815812,0.00505318950526631,0.960450590004005,0.30144993453037
432,0.978669466641425,0.00115531900706177,0.978670148568055,0.0676376188314004
433,0.972704158600314,0.0024570988560608,0.972707261972035,0.144731667502969
434,0.967778592129573,0.00346990572580535,0.967784812667591,0.205429323497454
435,0.964114855271912,0.0042767652526603,0.964124340983571,0.254159543699756
436,0.961637968729391,0.00476708097872271,0.961649784465762,0.284027245422037
437,0.960397982546894,0.00502748549352902,0.960411141381925,0.299928857031616
438,0.986839898421573,-0.000730552375594986,0.986840168833573,-0.0424157558437927
439,0.979659330868169,0.000896233467388177,0.979659740824076,0.0524165688990654
440,0.973662107071862,0.00224517313090332,0.973664695647329,0.132118437950495
441,0.968866789210596,0.00333564204132478,0.968872531215059,0.197258754201989
442,0.965302395115676,0.00416628452692647,0.965311386000818,0.24728938684727
443,0.962924387625319,0.00471996374079013,0.962935955472279,0.280844310763762
444,0.961754828644971,0.00499554893025375,0.961767802502783,0.297603180654836
445,0.978761956099316,0.00120599826245261,0.978762699094714,0.0705979376688596
446,0.972714101801437,0.00253121471219812,0.972717395182843,0.149095805672932
447,0.96794489893698,0.00364883948890375,0.967951776385444,0.215985551221311
448,0.964369312828647,0.00448107021821566,0.964379723716699,0.266230540513103
449,0.962015379213301,0.00503057206018357,0.962028532060335,0.299608433168627
450,0.960889849586834,0.00529883492226701,0.960904459709987,0.315954841325921
451,0.978763301420854,0.00120570797321977,0.978764044057589,0.0705808474291259
452,0.97278480981223,0.00255123049867547,0.972788155241661,0.150263864662913
453,0.967918533145129,0.00362125382281533,0.967925307182877,0.214358528574161
454,0.964437208126531,0.00446985006150272,0.964447566215225,0.265545239989699
455,0.96200104843511,0.00503296375261378,0.962014213987707,0.29975533911762
456,0.960847449697025,0.00530580369598784,0.960862098920619,0.316384321929558
457,0.986839905102959,-0.000730364043225769,0.986840175375553,-0.0424048210129961
458,0.979738788761136,0.000950860143241728,0.979739250177387,0.0556069195530726
459,0.973820232278706,0.00233435171303172,0.973823030120603,0.137343875640452
460,0.969092276727499,0.00344009478197589,0.969098382552048,0.203388355230268
461,0.96555978552887,0.00426817547287917,0.965569219037363,0.25326950404263
462,0.96322330833176,0.0048189375022012,0.96323536265662,0.286644306351838
463,0.9620522537678,0.00509443095071,0.962065742143652,0.303400010868128
464,0.978857182160209,0.00125789908960722,0.978857990403483,0.0736289936141283
465,0.972924039745139,0.00264342671709583,0.972927630822977,0.155671784711069
466,0.968182098508419,0.00375120616321358,0.968189365475496,0.221990476896852
467,0.964637670865306,0.00458094023045253,0.964648547951966,0.272088242369446
468,0.962340992446289,0.00512503854693305,0.962354639289808,0.305131242288439
469,0.961165005653784,0.00540126464297929,0.961180181731387,0.321970118306062
470,0.97883136440275,0.00129381579821668,0.978832219482925,0.0757333124264592
471,0.972911736137198,0.00264551606278801,0.972915332939478,0.155796796175465
472,0.968190200671482,0.00374986085787515,0.968197462366401,0.221909007629359
473,0.964668737872649,0.00457584167913494,0.96467959041118,0.271776662113316
474,0.962339638894392,0.00512522913771615,0.96235328677212,0.305143018526757
475,0.961164806970494,0.00540123291282422,0.96117998287293,0.321968293459987
476,0.985184892998462,-0.00102787845383942,0.985185429209398,-0.0597787037810309
477,0.978127124653718,0.00067455650720597,0.978127357254581,0.039513508831912
478,0.972219744816058,0.00210074509005226,0.972222014428872,0.123802916790676
479,0.967494052702615,0.0032289459085611,0.967499440881808,0.191220075652728
480,0.963974694578115,0.00407828931033441,0.963983321552126,0.242399901482609
481,0.961615274726758,0.00463158527140645,0.961626428593736,0.275960920610176
482,0.960446996791798,0.00490747002157493,0.960459534237855,0.292754180435777
483,0.977255159559263,0.00098045698351163,0.977255651393788,0.0574834809022029
484,0.971328366296129,0.00244139400448543,0.971331434463125,0.144010288254948
485,0.966615320339592,0.00353523308693742,0.96662178507842,0.209548750258719
486,0.963107242546095,0.00441465215011737,0.963117360345222,0.262628244879707
487,0.960702638798011,0.00494312393806538,0.96071535569477,0.294802604373499
488,0.959561049922158,0.00521450062114725,0.959575218283821,0.311356882338188
489,0.977256604630233,0.000980181090384358,0.977257096187274,0.0574672205224202
490,0.971323487122695,0.00241034856119451,0.971326477769642,0.1421797352477
491,0.966543842048649,0.0035471168799629,0.966550350804512,0.210268697009317
492,0.963087975062432,0.00438571423420991,0.963097960852996,0.260911967895225
493,0.960722328408763,0.00493984806941392,0.960735028195654,0.294601200780701
494,0.959562622406561,0.00521424203377113,0.959576789339834,0.311340932235885
495,0.985184921022938,-0.00102796608130047,0.985185457325288,-0.0597837982590821
496,0.97809963879295,0.000636341056561635,0.978099845791236,0.0372760098069605
497,0.972165905767211,0.00202425423618931,0.972168013226826,0.11930171186976
498,0.967419405256025,0.00313395268356714,0.96742448145855,0.185608881588611
499,0.963848021649834,0.00396658671101629,0.963856183591948,0.235791732199589
500,0.961459059362026,0.00452201690944195,0.961469693472572,0.269476449202325
501,0.960273822554058,0.00479909076631471,0.960285814512932,0.286340573660615
502,0.977229414746494,0.00094195607091347,0.977229868724352,0.0552276567005638
503,0.971287535916617,0.00233091190433176,0.971290332793073,0.137499096012126
504,0.966519097362406,0.00344393275318768,0.966525233110367,0.204157348900634
505,0.962946080834938,0.00427662739071512,0.962955577447478,0.254459822736767
506,0.960572599182376,0.00482934342592307,0.9605847390303,0.288055962722052
507,0.959379571122595,0.00510762190760124,0.959393167209839,0.305032984469614
508,0.977225598809424,0.000942664469357833,0.977226053472142,0.0552694064751477
509,0.971244891419971,0.00233802531241046,0.971247705516854,0.13792476565234
510,0.966538959541984,0.00344069237836886,0.966545083623388,0.203961068740398
511,0.962957888671234,0.00427464149599894,0.962967376349832,0.254338544616042
512,0.960520547502115,0.00483795649623162,0.960532731351109,0.288585335701959
513,0.959371607666302,0.00510890009265803,0.959385210672117,0.305111850263943
514,0.985184764103053,-0.0010281520920861,0.985185300599594,-0.0597946256723794
515,0.977975366805079,0.000644183911283263,0.97797557896424,0.0377402287026728
516,0.971924393292275,0.00203969849556076,0.9719265335644,0.120241805344723
517,0.967107408721968,0.00315394480560727,0.967112551553725,0.186853170508893
518,0.96350302638251,0.00398874361102608,0.963511282717463,0.23719372191572
519,0.961128630220109,0.00454333775508381,0.961139368534418,0.270840063623289
520,0.959937322922802,0.00482084624447496,0.95994942809437,0.287739433403568
521,0.977095153699335,0.000951499999607433,0.977095616986883,0.0557948903390658
522,0.971008932888008,0.00235262642235271,0.971011782935404,0.138819836197398
523,0.966176613300979,0.00346905894462608,0.966182841112236,0.205719719925633
524,0.962568994659854,0.00430409508054284,0.962578617420387,0.256194455228518
525,0.960237358390901,0.00485145817732058,0.96024961395253,0.289476045155989
526,0.959043693934716,0.00512930834023056,0.959057410523476,0.306435378712187
527,0.977100708854284,0.000950561022523026,0.977101171225274,0.055739512913173
528,0.970968350610477,0.00235936120198864,0.970971217118465,0.139223047877832
529,0.966199621433311,0.00346519988917183,0.966205835248445,0.205485981550895
530,0.962571601725164,0.00430369594701429,0.962581222675028,0.256170003939702
531,0.960226772933198,0.0048532352371495,0.960239037609891,0.289585268951248
532,0.959025128298578,0.00513236291394234,0.95903886149477,0.306623797374548
533,0.985184779278211,-0.00102813374932334,0.985185315755601,-0.0597935579852199
534,0.977987530364854,0.000643533399257231,0.977987742093111,0.0377016488315772
535,0.971971256073178,0.00203681930190245,0.971973390204352,0.12006628598924
536,0.967182527469918,0.00314927672250679,0.967187654691153,0.186562124414824
537,0.963554621202199,0.00400586022180087,0.963562948102629,0.238198807491971
538,0.961145770166028,0.00456257821623591,0.961156599430096,0.271982169641553
539,0.959934938889444,0.00484127804249461,0.959947146916832,0.288959632883863
540,0.977087154825653,0.000954319451613693,0.977087620866678,0.055960677845379
541,0.971036074040375,0.00235298276710426,0.971038924871525,0.138836982022681
542,0.966326449253743,0.00341989934580392,0.966332500870628,0.202773070069282
543,0.962651138521778,0.00431616474570664,0.962660814500822,0.256890951043945
544,0.960226737686188,0.00487531665164046,0.960239114220991,0.290902821928332
545,0.959037525180404,0.00515034303055087,0.959051354588213,0.307693989162658
546,0.977098265403104,0.000952441513587638,0.977098729606477,0.0558499217632895
547,0.971044870324131,0.00235154100184219,0.97104771763693,0.138750654575724
548,0.966276685743724,0.00346020062968157,0.966282881148307,0.205173164016004
549,0.96261274131706,0.00435465414395738,0.962622591028623,0.259192083172459
550,0.960248636793364,0.00487167525809947,0.960260994565194,0.290678920011823
551,0.958996401172701,0.00515714022618708,0.959010267701814,0.308113274095627
552,0.975764427612047,-0.001735482564255,0.975765970964758,-0.10190545861873
553,0.972144955626147,-0.000846428383756162,0.972145324110738,-0.0498863482382329
554,0.969730416859073,-0.000280682324467798,0.969730457479932,-0.0165838998625141
555,0.968525211911714,2.01059232445924e-06,0.968525211913801,0.000118942132941861
556,0.968525211911714,2.01059232445941e-06,0.968525211913801,0.000118942132941871
557,0.974846061856308,-0.00141892691871537,0.974847094507828,-0.083396209563868
558,0.971189467327509,-0.000492014785999653,0.97118959195743,-0.0290266412810886
559,0.968825669472624,3.30660504465916e-05,0.968825670036897,0.00195550674875495
560,0.967626936453009,0.000314548094825214,0.967626987578343,0.0186252335209011
561,0.974851740861969,-0.00141996452569629,0.974852775018292,-0.0834567077559608
562,0.971280730445524,-0.000507582978037572,0.97128086307477,-0.0299422801617953
563,0.968802228954573,3.70186625960721e-05,0.968802229661829,0.00218931487309874
564,0.967596906233647,0.000319707831910632,0.967596959051662,0.0189313428568603
565,0.974713626704909,-0.00172486328052562,0.974715152871634,-0.101391096157643
566,0.969914071779443,-0.000595130798356484,0.969914254362954,-0.0351561851888861
567,0.966317151499595,0.000251596855236377,0.966317184253322,0.0149179155059937
568,0.963932319663192,0.000815030646796526,0.963932664228274,0.0484451077677809
569,0.96276646428314,0.001094958508927,0.962767086933488,0.065162712435264
570,0.969025564471101,-0.000283836261635007,0.969025606040191,-0.0167824461971194
571,0.96542048644061,0.000563980915676717,0.965420651174242,0.0334711381953939
572,0.963038358330321,0.00112683094029398,0.963039017570694,0.0670405566727849
573,0.961866524878704,0.00140765226504267,0.961867554898872,0.0838499668558936
574,0.968980038622664,-0.000276114167830667,0.968980077962501,-0.0163266274037596
575,0.965376642084091,0.000571473111112735,0.965376811231278,0.0339173252385759
576,0.962978444454415,0.00113691311024131,0.962979115586245,0.0676446009767079
577,0.96190048583189,0.00140196105390961,0.961901507503976,0.0835080091291684
578,0.970537124890484,-0.00275567442701204,0.970541037016073,-0.162681144332062
579,0.965705446613346,-0.00157470191099711,0.965706730485394,-0.0934277567156121
580,0.962096684961572,-0.000680195267151116,0.962096925408063,-0.0405076871882181
581,0.959699633715136,-7.10172517737283e-05,0.959699636342755,-0.00423985656436462
582,0.958490935133394,0.000254633122953483,0.958490968956367,0.0152212216010389
583,0.964795683593539,-0.0012581754568377,0.964796503976981,-0.0747185170128652
584,0.961172229408642,-0.000361453850600704,0.961172297371946,-0.0215463769325422
585,0.958798020763537,0.000243693269164698,0.958798051732734,0.0145626036097803
586,0.957558244077289,0.000606752214436612,0.957558436310093,0.0363051925663639
587,0.964761724536783,-0.00125232408918507,0.964762537335904,-0.0743736435302376
588,0.961184875980113,-0.000363576772689658,0.961184944743193,-0.0216726398127569
589,0.958800966266651,0.000243128638493735,0.958800997092409,0.0145288178214083
590,0.957598437566289,0.000600007662603449,0.957598625541303,0.0359001235749439
591,0.967634478090858,-0.00346018517891839,0.967640664746806,-0.204884351004542
592,0.960266715856289,-0.00171681471458794,0.960268250560325,-0.102436261635817
593,0.954081857941946,-0.000238097891878324,0.954081887651454,-0.0142985676950352
594,0.949117493475037,0.000932935392907285,0.949117951989522,0.056318889625462
595,0.945401872272034,0.00181549466976448,0.945403615455517,0.110027341273182
596,0.942936535926833,0.00240981633673121,0.942939615246105,0.146427675286035
597,0.941683129735427,0.00267703083786984,0.941686934879324,0.162880857268193
598,0.959347754619004,-0.00139765109586977,0.959348772720907,-0.0834728095038833
599,0.953199324282688,0.0001069692313697,0.953199330284799,0.00642980467293775
600,0.948146206676472,0.00126015376214766,0.948147044093103,0.0761501222989255
601,0.944421124341039,0.00214401073196873,0.944423557988475,0.130071799511782
602,0.941992515629711,0.00276478408983328,0.941996572994538,0.168164823088688
603,0.940748769011674,0.00299747000692798,0.940753544358682,0.182558622539966
604,0.959390861553019,-0.00143729417585049,0.959391938180633,-0.0858365780682027
605,0.953118036508612,8.83015389595661e-05,0.953118040598956,0.00530816257653795
606,0.948195510207251,0.00125183827845048,0.948196336565516,0.0756436911412216
607,0.944486918829179,0.00213297743704747,0.944489327325716,0.129393424875122
608,0.942050580803791,0.0027551171805793,0.942054609597256,0.167566518897483
609,0.940713605860375,0.00297044112750501,0.940718295650361,0.180919222587179
610,0.966259464171963,-0.00345099055317829,0.966265626749543,-0.204630702690745
611,0.958820065243427,-0.00190400789183222,0.958821955714127,-0.113776793917467
612,0.952601301647048,-0.000624812739789549,0.952601506554871,-0.0375803893826021
613,0.94759062711546,0.00038790214223673,0.94759070651054,0.0234543839257479
614,0.943841320281762,0.00115165297440574,0.943842022891433,0.0699109275388683
615,0.941362544436803,0.00166622249074764,0.941364019052099,0.10141408038377
616,0.940145392612209,0.00193241425092596,0.940147378592741,0.117767981203513
617,0.957884513402778,-0.00161382551354896,0.957885872872998,-0.0965307425018352
618,0.951663791384065,-0.000334828447727557,0.951663850286215,-0.0201586487768049
619,0.946628188120769,0.000681774210781063,0.946628433632164,0.0412651752765964
620,0.942870972557204,0.00144655511883397,0.942872082210879,0.087903266222446
621,0.940412991438043,0.0019574516350483,0.940415028634885,0.119259895747688
622,0.939183823895724,0.00222550888836022,0.939186460697346,0.135768977982487
623,0.95790271009043,-0.00158465184602304,0.957904020828842,-0.0947839263776019
624,0.951705179328382,-0.000309279610546478,0.951705229582325,-0.0186196483268706
625,0.946633922480988,0.000680803696085516,0.94663416729242,0.0412061841553406
626,0.942878330078058,0.00144531605666066,0.942879437822933,0.0878272865197172
627,0.940392462742234,0.00196089724951519,0.940394507161982,0.11947243100385
628,0.939259210285129,0.00224582731473367,0.939261895237836,0.136997518916168
629,0.966259188336008,-0.00345058114859162,0.966265349453256,-0.204606485159863
630,0.958904339042573,-0.00166589257809506,0.958905786108706,-0.0995391447658248
631,0.952739684285421,-0.00018747350596124,0.952739702730289,-0.0112742658888206
632,0.947777860689258,0.00100483535490517,0.947778393353001,0.0607450392738733
633,0.94407937525222,0.00190752398090853,0.944081302338078,0.115766669162385
634,0.941610879175869,0.00250240346975195,0.941614204335023,0.152267590661824
635,0.940352314098897,0.00281175647986613,0.94035651781952,0.171320149669621
636,0.957996459530776,-0.00131609074857717,0.957997363549796,-0.0787126060446593
637,0.951816102950641,0.000132199866573086,0.951816112131408,0.00795793886512611
638,0.946837664628483,0.0013269637125543,0.946838594477334,0.0802982109392604
639,0.943105651267675,0.00223492284457717,0.943108299366063,0.135776311657333
640,0.940695646071589,0.00281981220257027,0.940699872371046,0.171748274795476
641,0.939402007253985,0.00316787653252973,0.939407348637715,0.193213625170386
642,0.958012687271519,-0.00135123207725865,0.958013640195861,-0.0808129629796667
643,0.951840912836195,0.000128017521717993,0.951840921445031,0.00770597644524796
644,0.946802305604521,0.00133292435593709,0.946803243860822,0.0806619175924588
645,0.943192018800524,0.00225329372315692,0.943194710365581,0.136879842230237
646,0.940692642210774,0.00282037947489744,0.940696870224341,0.171783374382115
647,0.939397413083711,0.00313573738786685,0.939402646662939,0.191254359643099
648,0.964101759335459,-0.00411881180335395,0.964110557438512,-0.244776129641689
649,0.958106624070097,-0.00264180390523335,0.958110266208891,-0.157982239839444
650,0.953301788464383,-0.00145199660479251,0.953302894249005,-0.0872684956591859
651,0.949695612412556,-0.000549515892768109,0.949695771393859,-0.0331526622906307
652,0.947318293623202,6.3925636004614e-05,0.947318295780073,0.00386635533679588
653,0.946128485934436,0.000370690069934236,0.946128558552017,0.0224482992993322
654,0.95720856975221,-0.00232493990538843,0.95721139324218,-0.139164009242718
655,0.952393206300198,-0.00113365785036951,0.952393881010842,-0.0682005910282223
656,0.94873760773471,-0.000223021974728438,0.948737633947859,-0.0134686530301594
657,0.946433795655461,0.000410418043951789,0.946433884643705,0.0248461333358847
658,0.945245632064915,0.000716844890287675,0.945245903881311,0.0434513289581919
659,0.957201957595407,-0.00232379912540949,0.957204778334737,-0.139096686645232
660,0.952394688567477,-0.00113394420835558,0.952395363617972,-0.0682177120701244
661,0.948791315748494,-0.00023216689993823,0.948791344153828,-0.0140201359590912
662,0.946407491839773,0.000382102608402594,0.946407568974833,0.0231325996482695
663,0.945212487766139,0.000689704723551874,0.945212739398734,0.041807702784057
664,0.964101501075567,-0.00411899315023487,0.964110299955733,-0.244786972313685
665,0.957953397284945,-0.00259087988035416,0.957956900924213,-0.154961734920593
666,0.952978273177586,-0.00136928268100565,0.952979256901006,-0.0823251345807496
667,0.949211829318275,-0.000435676497472223,0.949211929303334,-0.0262980527783634
668,0.946707884276001,0.00018606283130246,0.946707902560087,0.0112607225498888
669,0.9454393102825,0.000518690141121986,0.945439452565267,0.0314338029490183
670,0.957067563630746,-0.00227611565034599,0.957070270176932,-0.136261617819558
671,0.952068620638307,-0.00105082118053847,0.952069200546516,-0.0632387129606387
672,0.948234208622311,-7.32342874924946e-05,0.948234211450337,-0.00442508353154777
673,0.945733230224278,0.00048237483481005,0.945733353242831,0.0292239279512874
674,0.944495412330882,0.000875163893067177,0.944495817791652,0.0530899170602172
675,0.957066470052199,-0.00224353093488252,0.957069099662732,-0.134311066515184
676,0.952056788944235,-0.00104873100132518,0.952057366554937,-0.0631137098278128
677,0.948278532785621,-0.000113489950220135,0.948278539576858,-0.00685715737402214
678,0.945810133922253,0.000534740589452769,0.945810285087622,0.0323937908323933
679,0.944466152184236,0.00088004617306871,0.944466562194217,0.0533877437363534
680,0.963650818914501,-0.0043080502385874,0.963660448545776,-0.256142004332307
681,0.956206357588462,-0.00269012195792526,0.956210141678461,-0.161191385833862
682,0.949994020473116,-0.00132178468512216,0.94999494001254,-0.0797190649420416
683,0.945014858229205,-0.000222995030377261,0.945014884539259,-0.013520077218476
684,0.941289164128913,0.000626080859511677,0.94128937234187,0.0381092091156187
685,0.938838915121048,0.00122446754838958,0.938839713618061,0.0747271781813499
686,0.93763654633648,0.00153256278333257,0.937637798819185,0.0936496145233681
687,0.955272903090418,-0.00239913301070587,0.955275915753139,-0.143895955336573
688,0.949062748403089,-0.000999157431439741,0.949063274351083,-0.0603200187098552
689,0.944053174555188,7.17580577047981e-05,0.944053177282375,0.00435508714491666
690,0.94032885181652,0.000920209077202146,0.94032930207631,0.0560698307414467
691,0.937910505232373,0.00157892372734165,0.937911834249564,0.0964543842779991
692,0.936739773080552,0.00188166446975497,0.936741662963798,0.11509203587581
693,0.955266177312803,-0.00239800474268948,0.955269187163787,-0.143829296659308
694,0.949053193456204,-0.00103015036290754,0.949053752544706,-0.0621917141051674
695,0.944069783701892,6.89359875786768e-05,0.944069786218745,0.00418373853923891
696,0.940308747185736,0.000923639194578617,0.940309200818205,0.0562800365096074
697,0.937875683507298,0.00151881779234247,0.937876913310999,0.0927860427650319
698,0.936715173856252,0.00185269051367646,0.93671700603474,0.113322823972378
699,0.963650879352771,-0.00430822505089875,0.963660509764958,-0.256152381873703
700,0.956152904978686,-0.00276822244905096,0.956156912203592,-0.165880393304762
701,0.949851845024929,-0.00149596335010091,0.94985302305336,-0.0902375626764309
702,0.944779642174412,-0.000493257462502206,0.944779770936134,-0.0299133967174234
703,0.940959347616009,0.000259454989057666,0.940959383386359,0.0157984247752435
704,0.938412352369274,0.0007610584243379,0.93841266098085,0.0464672337348578
705,0.937126337760551,0.00101257711081214,0.937126884811714,0.0619088056382442
706,0.955273878473007,-0.0024541825661316,0.955277030973178,-0.147197570249159
707,0.9489216473145,-0.00117324941105861,0.948922372618669,-0.0708406278917856
708,0.943829841726506,-0.000200237647763136,0.943829862967155,-0.0121555511778907
709,0.939987904440696,0.000555907977909772,0.939988068822414,0.0338846670984421
710,0.93745815665261,0.00105444274211517,0.937458749665288,0.0644456426717441
711,0.936150893576921,0.0013093872215413,0.936151809291508,0.0801391240817865
712,0.955215851394676,-0.00247655679881712,0.955219061833061,-0.148548554917915
713,0.948916649176731,-0.00120509226669575,0.94891741438977,-0.0727636760779948
714,0.943825150946477,-0.000199406448785242,0.943825172011254,-0.0121051528894243
715,0.939993460134725,0.000554999903265625,0.939993623978879,0.0338291166276799
716,0.937448183341504,0.00105612652572451,0.937448778255924,0.0645492391262518
717,0.936144771959818,0.00131041898388633,0.936145689124087,0.0802027959563366
718,0.96351777951898,-0.00438329925603964,0.963527749865853,-0.260651978122076
719,0.958669622817912,-0.00328837213702013,0.95867526259164,-0.196531841111152
720,0.955042167233891,-0.00246303462297993,0.955045343287093,-0.147764340320709
721,0.952616614589432,-0.00192615826884413,0.952618561900569,-0.115849952007504
722,0.951394799200465,-0.00165715687273437,0.951396242432454,-0.0997987363991852
723,0.957735091983696,-0.00299698779817778,0.957739781126837,-0.179291949351547
724,0.954109514494957,-0.00217232127066427,0.954111987467669,-0.130451089310719
725,0.951736142502829,-0.00161201829725296,0.951737507692723,-0.0970455491622292
726,0.950482025396434,-0.0013375306413213,0.950482966491206,-0.080627311284378
727,0.957751430503855,-0.00296740931315395,0.95775602746744,-0.177519427570696
728,0.954154281633644,-0.00211508032714767,0.954156625887284,-0.127007738598632
729,0.951670432934004,-0.00163330578541952,0.951671834514704,-0.0983338696237823
730,0.950453026262191,-0.00136517247630485,0.950454006686724,-0.082296089599746
